LTspice 24.1.10 for Windows
Circuit: C:\Users\andre\OneDrive - Personal\OneDrive\Documents\_Uni 2\__Courses\_WS25-26\Telcom lab\ASK\spice\Draft1.net
Start Time: Wed Nov  5 21:40:37 2025
solver = Normal
Maximum thread count: 12
tnom = 27
temp = 27
method = trap
Direct Newton iteration for .op point succeeded.
Total elapsed time: 0.067 seconds.

Files loaded:
C:\Users\andre\OneDrive - Personal\OneDrive\Documents\_Uni 2\__Courses\_WS25-26\Telcom lab\ASK\spice\Draft1.net
C:\Users\andre\AppData\Local\LTspice\lib\cmp\standard.dio

