LTspice 24.1.10 for Windows
Circuit: C:\Users\andre\OneDrive - Personal\OneDrive\Documents\_Uni 2\__Courses\_WS25-26\Telcom lab\ASK\spice\test_spice.net
Start Time: Fri Nov  7 15:12:24 2025
solver = Normal
Maximum thread count: 12
tnom = 27
temp = 27
method = trap
Direct Newton iteration for .op point succeeded.
Total elapsed time: 0.064 seconds.

Files loaded:
C:\Users\andre\OneDrive - Personal\OneDrive\Documents\_Uni 2\__Courses\_WS25-26\Telcom lab\ASK\spice\test_spice.net

